# File generated by Flopy version 3.9.3 on 08/13/2025 at 15:54:53.
BEGIN options
  XORIGIN  1.75029548E+06
  YORIGIN  5.42561725E+06
END options

BEGIN dimensions
  NLAY  1
  NROW  90
  NCOL  99
END dimensions

BEGIN griddata
  delr
    OPEN/CLOSE  'lhgzsi.dis_delr.txt'  FACTOR  1.0
  delc
    OPEN/CLOSE  'lhgzsi.dis_delc.txt'  FACTOR  1.0
  top
    OPEN/CLOSE  'lhgzsi.dis_top.txt'  FACTOR  1.0
  botm
    OPEN/CLOSE  'lhgzsi.dis_botm.txt'  FACTOR  1.0
  idomain
    OPEN/CLOSE  'lhgzsi.dis_idomain.txt'  FACTOR  1
END griddata

