# File generated by Flopy version 3.9.3 on 08/13/2025 at 15:54:53.
BEGIN options
  TIME_UNITS  days
  START_DATE_TIME  2014-01-01
END options

BEGIN dimensions
  NPER  1
END dimensions

BEGIN perioddata
       1.00000000  1       1.00000000
END perioddata

