# File generated by Flopy version 3.9.3 on 08/13/2025 at 15:54:53.
BEGIN options
  SAVE_FLOWS
END options

BEGIN packages
  DIS6  lhgzsi.dis  dis
  IC6  lhgzsi.ic  ic
  NPF6  lhgzsi.npf  npf
  GHB6  lhgzsi.ghb  ghbs
  CHD6  lhgzsi.chd  chd
  GHB6  lhgzsi_0.ghb  ghbt
  GHB6  lhgzsi_1.ghb  ghbb
  OC6  lhgzsi.oc  oc
END packages

