# File generated by Flopy version 3.9.3 on 08/13/2025 at 15:54:53.
BEGIN options
END options

BEGIN timing
  TDIS6  lhgzsi.tdis
END timing

BEGIN models
  gwf6  lhgzsi.nam  lhgzsi
END models

BEGIN exchanges
END exchanges

BEGIN solutiongroup  1
  ims6  lhgzsi.ims  lhgzsi
END solutiongroup  1

