# File generated by Flopy version 3.9.3 on 08/28/2025 at 10:35:52.
BEGIN Options
  LIST  freyberg6.lst
  NEWTON
END Options

BEGIN Packages
  dis6  freyberg6.dis
  ic6  freyberg6.ic
  npf6  freyberg6.npf
  sto6  freyberg6.sto
  oc6  freyberg6.oc
  wel6  freyberg6.wel
  rch6  freyberg6.rch
  ghb6  freyberg6.ghb
  sfr6  freyberg6.sfr  sfr_1
  obs6  head.obs  head_obs
END Packages

