# File generated by Flopy version 3.9.3 on 08/28/2025 at 10:35:52.
BEGIN Options
  LENGTH_UNITS  meters
  XORIGIN  6.22241190E+05
  YORIGIN  3.34361774E+06
  ANGROT      15.00000000
END Options

BEGIN Dimensions
  NLAY  3
  NROW  40
  NCOL  20
END Dimensions

BEGIN GRIDDATA
  delr
    OPEN/CLOSE  'freyberg6.dis_delr.txt'  FACTOR  1.0
  delc
    OPEN/CLOSE  'freyberg6.dis_delc.txt'  FACTOR  1.0
  top
    OPEN/CLOSE  'freyberg6.dis_top.txt'  FACTOR  1.0
  botm  LAYERED
    OPEN/CLOSE  'freyberg6.dis_botm_layer1.txt'  FACTOR  1.0
    OPEN/CLOSE  'freyberg6.dis_botm_layer2.txt'  FACTOR  1.0
    OPEN/CLOSE  'freyberg6.dis_botm_layer3.txt'  FACTOR  1.0
  idomain  LAYERED
    OPEN/CLOSE  'freyberg6.dis_idomain_layer1.txt'  FACTOR  1
    OPEN/CLOSE  'freyberg6.dis_idomain_layer2.txt'  FACTOR  1
    OPEN/CLOSE  'freyberg6.dis_idomain_layer3.txt'  FACTOR  1
END GRIDDATA

