# File generated by Flopy version 3.9.3 on 08/28/2025 at 10:35:52.
BEGIN Options
  CONTINUE
END Options

BEGIN TIMING
  TDIS6  freyberg6.tdis
END TIMING

BEGIN MODELS
  gwf6  freyberg6.nam  freyberg6
END MODELS

BEGIN EXCHANGES
END EXCHANGES

BEGIN SOLUTIONGROUP  1
  MXITER  1
  ims6  freyberg6.ims  freyberg6
END SOLUTIONGROUP  1

